Version 4
SHEET 1 1688 680
WIRE 928 -48 480 -48
WIRE 928 -32 928 -48
WIRE -416 0 -592 0
WIRE 480 0 480 -48
WIRE 480 0 -256 0
WIRE 560 48 352 48
WIRE 640 48 560 48
WIRE -416 64 -464 64
WIRE -48 64 -256 64
WIRE 928 64 928 48
WIRE 928 64 816 64
WIRE -464 80 -464 64
WIRE -464 80 -592 80
WIRE 640 80 640 48
WIRE 816 80 816 64
WIRE -592 96 -592 80
WIRE 560 96 560 48
WIRE 480 224 480 0
WIRE 352 240 352 48
WIRE 448 240 352 240
WIRE 560 256 560 160
WIRE 560 256 512 256
WIRE 640 256 640 160
WIRE 640 256 560 256
WIRE 688 256 640 256
WIRE 832 256 768 256
WIRE 896 256 832 256
WIRE -128 272 -176 272
WIRE -48 272 -48 64
WIRE -48 272 -64 272
WIRE -16 272 -48 272
WIRE 96 272 64 272
WIRE 128 272 96 272
WIRE 208 272 128 272
WIRE 448 272 208 272
WIRE 832 288 832 256
WIRE -176 304 -176 272
WIRE 96 320 96 272
WIRE 208 320 208 272
WIRE 352 320 352 240
WIRE -176 416 -176 384
WIRE 96 416 96 384
WIRE 96 416 -176 416
WIRE 208 416 208 400
WIRE 208 416 96 416
WIRE 352 416 352 400
WIRE 352 416 208 416
WIRE 400 416 352 416
WIRE 480 416 480 288
WIRE 480 416 400 416
WIRE 832 416 832 352
WIRE 832 416 480 416
WIRE 400 448 400 416
FLAG 400 448 0
FLAG 816 80 0
FLAG 896 256 ADC
FLAG 128 272 V1
FLAG -592 96 0
SYMBOL res 80 256 R90
WINDOW 0 0 56 VBottom 2
WINDOW 3 32 56 VTop 2
SYMATTR InstName R5
SYMATTR Value 10k
SYMBOL res 192 304 R0
SYMATTR InstName R1
SYMATTR Value 100k
SYMBOL res 336 304 R0
SYMATTR InstName R2
SYMATTR Value 1k
SYMBOL res 624 64 R0
SYMATTR InstName R3
SYMATTR Value 100k
SYMBOL OpAmps\\LTC1050 480 192 R0
SYMATTR InstName U1
SYMBOL cap 80 320 R0
SYMATTR InstName C1
SYMATTR Value 100n
SYMBOL cap 544 96 R0
SYMATTR InstName C2
SYMATTR Value 1µ
SYMBOL res 784 240 R90
WINDOW 0 0 56 VBottom 2
WINDOW 3 32 56 VTop 2
SYMATTR InstName R4
SYMATTR Value 1k
SYMBOL cap 816 288 R0
SYMATTR InstName C3
SYMATTR Value 100n
SYMBOL voltage 928 -48 R0
WINDOW 123 0 0 Left 0
WINDOW 39 0 0 Left 0
SYMATTR InstName V1
SYMATTR Value 5
SYMBOL cap -64 256 R90
WINDOW 0 0 32 VBottom 2
WINDOW 3 32 32 VTop 2
SYMATTR InstName C5
SYMATTR Value 1p
SYMBOL voltage -176 288 R0
WINDOW 123 0 0 Left 0
WINDOW 39 0 0 Left 0
SYMATTR InstName V2
SYMATTR Value SINE(0 325 50)
SYMBOL gasSensor_Paul -336 32 R0
SYMATTR InstName X1
SYMBOL voltage -592 -16 R0
WINDOW 123 0 0 Left 0
WINDOW 39 0 0 Left 0
SYMATTR InstName V3
SYMATTR Value PULSE(0 1 0.2 0.1 0.1 20)
TEXT -464 296 Left 2 !.param G0 10n
TEXT -464 336 Left 2 !.param G1 10n
TEXT -464 368 Left 2 !.param R1 100k
TEXT -312 464 Left 2 !.tran 2
